-------------------------------------------------------
          Amber 20 PMEMD                              2020
          -------------------------------------------------------

  [-O]verwriting output

File Assignments:

 Here is the input file:

equilibration
 &cntrl
  imin=0, irest=1, ntx=7,
  ntb=2, pres0=1.0, ntp=1, taup=2.0,
  cut=10.0, ntc=2, ntf=2,
  tempi=310.0, temp0=310.0,
  ntt=3, gamma_ln=1.0,
  nstlim=100000, dt=0.002,
  ntpr=1000, ntwx=1000, ntwr=1000,
  ntr=1, restraint_wt=5.0, restraintmask=':1-306'
 /

Note: ig = -1. Setting random seed to   119871 based on wallclock time in
      microseconds.

--------------------------------------------------------------------------------
   1.  RESOURCE   USE:
--------------------------------------------------------------------------------

 getting box info from netcdf restart file
 NATOM  =   67793 NTYPES =      19 NBONH =   65456 MBONA  =    2386
 NTHETH =    5160 MTHETA =    3243 NPHIH =   10638 MPHIA  =   10383
 NHPARM =       0 NPARM  =       0 NNB   =  109647 NRES   =   21363
 NBONA  =    2386 NTHETA =    3243 NPHIA =   10383 NUMBND =      75
 NUMANG =     174 NPTRA  =     200 NATYP =      38 NPHB   =       1
 IFBOX  =       1 NMXRS  =      24 IFCAP =       0 NEXTRA =       0
 NCOPY  =       0

     BOX TYPE: RECTILINEAR

--------------------------------------------------------------------------------
   2.  CONTROL  DATA  FOR  THE  RUN
--------------------------------------------------------------------------------

default_name

General flags:
     imin    =       0, nmropt  =       0

Nature and format of input:
     ntx     =       7, irest   =       1, ntrx    =       1

Nature and format of output:
     ntxo    =       2, ntpr    =    1000, ntrx    =       1, ntwr    =    1000
     iwrap   =       0, ntwx    =    1000, ntwv    =       0, ntwe    =       0
     ioutfm  =       1, ntwprt  =       0, idecomp =       0, rbornstat=      0

Potential function:
     ntf     =       2, ntb     =       2, igb     =       0, nsnb    =      25
     ipol    =       0, gbsa    =       0, iesp    =       0
     dielc   =   1.00000, cut     =  10.00000, intdiel =   1.00000

Frozen or restrained atoms:
     ibelly  =       0, ntr     =       1
     restraint_wt =   5.00000

Molecular dynamics:
     nstlim  =    100000, nscm    =         0, nrespa  =         1
     t       =   0.00000, dt      =   0.00200, vlimit  =  -1.00000

Langevin dynamics temperature regulation:
     ig      =  119871
     temp0   = 310.00000, tempi   = 310.00000, gamma_ln=   1.00000

Pressure regulation:
     ntp     =       1
     pres0   =   1.00000, comp    =  44.60000, taup    =   2.00000

SHAKE:
     ntc     =       2, jfastw  =       0
     tol     =   0.00001

Ewald parameters:
     verbose =       0, ew_type =       0, nbflag  =       1, use_pme =       1
     vdwmeth =       1, eedmeth =       1, netfrc  =       1
     Box X =   85.253   Box Y =  101.423   Box Z =   93.535
     Alpha =   90.000   Beta  =   90.000   Gamma =   90.000
     NFFT1 =   96       NFFT2 =  108       NFFT3 =   96
     Cutoff=   10.000   Tol   =0.100E-04
     Ewald Coefficient =  0.27511
     Interpolation order =    4

    LOADING THE CONSTRAINED ATOMS AS GROUPS

   5.  REFERENCE ATOM COORDINATES

  default_name
     Mask :1-306; matches  4622 atoms

--------------------------------------------------------------------------------
   3.  ATOMIC COORDINATES AND VELOCITIES
--------------------------------------------------------------------------------

default_name
 begin time read from input coords =   310.000 ps

 Number of triangulated 3-point waters found:    21058

     Sum of charges from parm topology file =  -0.00000016
     Forcing neutrality...

--------------------------------------------------------------------------------
   4.  RESULTS
 NSTEP =     1000   TIME(PS) =     312.000  TEMP(K) =   309.36  PRESS =    -7.8
 Etot   =    -93515.8434  EKtot   =     42395.2773  EPtot      =   -135911.1208
 BOND   =       883.0206  ANGLE   =      2263.1939  DIHED      =      1620.0600
 UB     =         0.0000  IMP     =         0.0000  CMAP       =       271.2928
 1-4 NB =      1072.8059  1-4 EEL =     12189.2891  VDWAALS    =     -6777.0826
 EELEC  =   -148233.8494  EHBOND  =         0.0000  RESTRAINT  =       800.1491
 EAMBER (non-restraint)  =   -136711.2699
 EKCMT  =     19441.9520  VIRIAL  =     19577.9880  VOLUME     =    808783.1539
                                                    Density    =         0.8500
 ------------------------------------------------------------------------------

      A V E R A G E S   O V E R     100 S T E P S

 NSTEP =   100000   TIME(PS) =     510.000  TEMP(K) =   309.80  PRESS =     1.6
 Etot   =    -93390.7206  EKtot   =     42454.7351  EPtot      =   -135845.4557
 BOND   =       874.1453  ANGLE   =      2249.7894  DIHED      =      1620.0806
 UB     =         0.0000  IMP     =         0.0000  CMAP       =       282.1739
 1-4 NB =      1069.1108  1-4 EEL =     12160.6921  VDWAALS    =     -6631.5026
 EELEC  =   -148272.9492  EHBOND  =         0.0000  RESTRAINT  =       803.0041
 EAMBER (non-restraint)  =   -136648.4598
 EKCMT  =     19489.4152  VIRIAL  =     19461.5159  VOLUME     =    811355.8040
                                                    Density    =         0.8473
 ------------------------------------------------------------------------------

      R M S  F L U C T U A T I O N S

 NSTEP =   100000   TIME(PS) =     510.000  TEMP(K) =     1.11  PRESS =    64.2
 Etot   =       225.5648  EKtot   =       152.0056  EPtot      =       181.9945
 BOND   =        29.0890  ANGLE   =        35.9155  DIHED      =        14.6017
 UB     =         0.0000  IMP     =         0.0000  CMAP       =         8.1500
 1-4 NB =        11.0498  1-4 EEL =        30.1489  VDWAALS    =       140.5989
 EELEC  =       226.1516  EHBOND  =         0.0000  RESTRAINT  =        15.8946
 EAMBER (non-restraint)  =       166.0999
 EKCMT  =       110.0563  VIRIAL  =      1133.7680  VOLUME     =       657.3823
                                                    Density    =         0.0007
 ------------------------------------------------------------------------------
